
Version,
  8.9;                                    !- Version Identifier

Timestep,
  6;                                      !- Number of Timesteps per Hour

LifeCycleCost:Parameters,
  {68ab45b5-3b78-4bf4-bdcd-1cd7ae355bb7}, !- Name
  EndOfYear,                              !- Discounting Convention
  ConstantDollar,                         !- Inflation Approach
  0.03,                                   !- Real Discount Rate
  ,                                       !- Nominal Discount Rate
  ,                                       !- Inflation
  ,                                       !- Base Date Month
  2011,                                   !- Base Date Year
  ,                                       !- Service Date Month
  2011,                                   !- Service Date Year
  25,                                     !- Length of Study Period in Years
  ,                                       !- Tax rate
  None;                                   !- Depreciation Method

LifeCycleCost:UsePriceEscalation,
  U.S. Avg  Commercial-Electricity,       !- LCC Price Escalation Name
  Electricity,                            !- Resource
  2011,                                   !- Escalation Start Year
  January,                                !- Escalation Start Month
  0.9838,                                 !- Year Escalation 1
  0.9730,                                 !- Year Escalation 2
  0.9632,                                 !- Year Escalation 3
  0.9611,                                 !- Year Escalation 4
  0.9571,                                 !- Year Escalation 5
  0.9553,                                 !- Year Escalation 6
  0.9539,                                 !- Year Escalation 7
  0.9521,                                 !- Year Escalation 8
  0.9546,                                 !- Year Escalation 9
  0.9550,                                 !- Year Escalation 10
  0.9553,                                 !- Year Escalation 11
  0.9564,                                 !- Year Escalation 12
  0.9575,                                 !- Year Escalation 13
  0.9596,                                 !- Year Escalation 14
  0.9618,                                 !- Year Escalation 15
  0.9614,                                 !- Year Escalation 16
  0.9618,                                 !- Year Escalation 17
  0.9618,                                 !- Year Escalation 18
  0.9593,                                 !- Year Escalation 19
  0.9589,                                 !- Year Escalation 20
  0.9607,                                 !- Year Escalation 21
  0.9625,                                 !- Year Escalation 22
  0.9650,                                 !- Year Escalation 23
  0.9708,                                 !- Year Escalation 24
  0.9751,                                 !- Year Escalation 25
  0.9762,                                 !- Year Escalation 26
  0.9766,                                 !- Year Escalation 27
  0.9766,                                 !- Year Escalation 28
  0.9769,                                 !- Year Escalation 29
  0.9773;                                 !- Year Escalation 30

LifeCycleCost:UsePriceEscalation,
  U.S. Avg  Commercial-Distillate Oil,    !- LCC Price Escalation Name
  FuelOil#1,                              !- Resource
  2011,                                   !- Escalation Start Year
  January,                                !- Escalation Start Month
  0.9714,                                 !- Year Escalation 1
  0.9730,                                 !- Year Escalation 2
  0.9942,                                 !- Year Escalation 3
  1.0164,                                 !- Year Escalation 4
  1.0541,                                 !- Year Escalation 5
  1.0928,                                 !- Year Escalation 6
  1.1267,                                 !- Year Escalation 7
  1.1580,                                 !- Year Escalation 8
  1.1792,                                 !- Year Escalation 9
  1.1967,                                 !- Year Escalation 10
  1.2200,                                 !- Year Escalation 11
  1.2333,                                 !- Year Escalation 12
  1.2566,                                 !- Year Escalation 13
  1.2709,                                 !- Year Escalation 14
  1.2826,                                 !- Year Escalation 15
  1.2985,                                 !- Year Escalation 16
  1.3102,                                 !- Year Escalation 17
  1.3250,                                 !- Year Escalation 18
  1.3261,                                 !- Year Escalation 19
  1.3282,                                 !- Year Escalation 20
  1.3324,                                 !- Year Escalation 21
  1.3356,                                 !- Year Escalation 22
  1.3431,                                 !- Year Escalation 23
  1.3510,                                 !- Year Escalation 24
  1.3568,                                 !- Year Escalation 25
  1.3606,                                 !- Year Escalation 26
  1.3637,                                 !- Year Escalation 27
  1.3674,                                 !- Year Escalation 28
  1.3706,                                 !- Year Escalation 29
  1.3743;                                 !- Year Escalation 30

LifeCycleCost:UsePriceEscalation,
  U.S. Avg  Commercial-Residual Oil,      !- LCC Price Escalation Name
  FuelOil#2,                              !- Resource
  2011,                                   !- Escalation Start Year
  January,                                !- Escalation Start Month
  0.8469,                                 !- Year Escalation 1
  0.8257,                                 !- Year Escalation 2
  0.8681,                                 !- Year Escalation 3
  0.8988,                                 !- Year Escalation 4
  0.9289,                                 !- Year Escalation 5
  0.9604,                                 !- Year Escalation 6
  0.9897,                                 !- Year Escalation 7
  1.0075,                                 !- Year Escalation 8
  1.0314,                                 !- Year Escalation 9
  1.0554,                                 !- Year Escalation 10
  1.0861,                                 !- Year Escalation 11
  1.1278,                                 !- Year Escalation 12
  1.1497,                                 !- Year Escalation 13
  1.1620,                                 !- Year Escalation 14
  1.1743,                                 !- Year Escalation 15
  1.1852,                                 !- Year Escalation 16
  1.1948,                                 !- Year Escalation 17
  1.2037,                                 !- Year Escalation 18
  1.2071,                                 !- Year Escalation 19
  1.2119,                                 !- Year Escalation 20
  1.2139,                                 !- Year Escalation 21
  1.2194,                                 !- Year Escalation 22
  1.2276,                                 !- Year Escalation 23
  1.2365,                                 !- Year Escalation 24
  1.2420,                                 !- Year Escalation 25
  1.2461,                                 !- Year Escalation 26
  1.2509,                                 !- Year Escalation 27
  1.2550,                                 !- Year Escalation 28
  1.2591,                                 !- Year Escalation 29
  1.2638;                                 !- Year Escalation 30

LifeCycleCost:UsePriceEscalation,
  U.S. Avg  Commercial-Natural gas,       !- LCC Price Escalation Name
  NaturalGas,                             !- Resource
  2011,                                   !- Escalation Start Year
  January,                                !- Escalation Start Month
  0.9823,                                 !- Year Escalation 1
  0.9557,                                 !- Year Escalation 2
  0.9279,                                 !- Year Escalation 3
  0.9257,                                 !- Year Escalation 4
  0.9346,                                 !- Year Escalation 5
  0.9412,                                 !- Year Escalation 6
  0.9512,                                 !- Year Escalation 7
  0.9645,                                 !- Year Escalation 8
  0.9856,                                 !- Year Escalation 9
  1.0067,                                 !- Year Escalation 10
  1.0222,                                 !- Year Escalation 11
  1.0410,                                 !- Year Escalation 12
  1.0610,                                 !- Year Escalation 13
  1.0787,                                 !- Year Escalation 14
  1.0942,                                 !- Year Escalation 15
  1.1098,                                 !- Year Escalation 16
  1.1220,                                 !- Year Escalation 17
  1.1308,                                 !- Year Escalation 18
  1.1386,                                 !- Year Escalation 19
  1.1486,                                 !- Year Escalation 20
  1.1619,                                 !- Year Escalation 21
  1.1763,                                 !- Year Escalation 22
  1.1918,                                 !- Year Escalation 23
  1.2118,                                 !- Year Escalation 24
  1.2284,                                 !- Year Escalation 25
  1.2439,                                 !- Year Escalation 26
  1.2605,                                 !- Year Escalation 27
  1.2772,                                 !- Year Escalation 28
  1.2938,                                 !- Year Escalation 29
  1.3115;                                 !- Year Escalation 30

LifeCycleCost:UsePriceEscalation,
  U.S. Avg  Commercial-Coal,              !- LCC Price Escalation Name
  Coal,                                   !- Resource
  2011,                                   !- Escalation Start Year
  January,                                !- Escalation Start Month
  0.9970,                                 !- Year Escalation 1
  1.0089,                                 !- Year Escalation 2
  1.0089,                                 !- Year Escalation 3
  0.9941,                                 !- Year Escalation 4
  0.9941,                                 !- Year Escalation 5
  1.0000,                                 !- Year Escalation 6
  1.0030,                                 !- Year Escalation 7
  1.0059,                                 !- Year Escalation 8
  1.0089,                                 !- Year Escalation 9
  1.0119,                                 !- Year Escalation 10
  1.0148,                                 !- Year Escalation 11
  1.0178,                                 !- Year Escalation 12
  1.0208,                                 !- Year Escalation 13
  1.0267,                                 !- Year Escalation 14
  1.0297,                                 !- Year Escalation 15
  1.0356,                                 !- Year Escalation 16
  1.0415,                                 !- Year Escalation 17
  1.0534,                                 !- Year Escalation 18
  1.0564,                                 !- Year Escalation 19
  1.0593,                                 !- Year Escalation 20
  1.0653,                                 !- Year Escalation 21
  1.0712,                                 !- Year Escalation 22
  1.0742,                                 !- Year Escalation 23
  1.0801,                                 !- Year Escalation 24
  1.0831,                                 !- Year Escalation 25
  1.0831,                                 !- Year Escalation 26
  1.0861,                                 !- Year Escalation 27
  1.0890,                                 !- Year Escalation 28
  1.0920,                                 !- Year Escalation 29
  1.0950;                                 !- Year Escalation 30

Building,
  Large Office ASHRAE 169-2006-2A,        !- Name
  0,                                      !- North Axis {deg}
  City,                                   !- Terrain
  0.04,                                   !- Loads Convergence Tolerance Value
  0.2,                                    !- Temperature Convergence Tolerance Value {deltaC}
  FullInteriorAndExterior,                !- Solar Distribution
  25,                                     !- Maximum Number of Warmup Days
  6;                                      !- Minimum Number of Warmup Days

Zone,
  Basement ZN,                            !- Name
  -0,                                     !- Direction of Relative North {deg}
  16.0794,                                !- X Origin {m}
  0,                                      !- Y Origin {m}
  -2.439,                                 !- Z Origin {m}
  ,                                       !- Type
  ,                                       !- Multiplier
  ,                                       !- Ceiling Height {m}
  ,                                       !- Volume {m3}
  ,                                       !- Floor Area {m2}
  ,                                       !- Zone Inside Convection Algorithm
  ,                                       !- Zone Outside Convection Algorithm
  Yes;                                    !- Part of Total Floor Area

BuildingSurface:Detailed,
  Basement_Floor,                         !- Name
  Floor,                                  !- Surface Type
  Basement Floor construction,            !- Construction Name
  Basement ZN,                            !- Zone Name
  Ground,                                 !- Outside Boundary Condition
  ,                                       !- Outside Boundary Condition Object
  NoSun,                                  !- Sun Exposure
  NoWind,                                 !- Wind Exposure
  0,                                      !- View Factor to Ground
  ,                                       !- Number of Vertices
  57.0278, 48.7381, 0,                    !- X,Y,Z Vertex 1 {m}
  57.0278, 0, 0,                          !- X,Y,Z Vertex 2 {m}
  0, 0, 0,                                !- X,Y,Z Vertex 3 {m}
  0, 48.7381, 0;                          !- X,Y,Z Vertex 4 {m}

BuildingSurface:Detailed,
  Basement_Wall_East,                     !- Name
  Wall,                                   !- Surface Type
  Basement Wall construction,             !- Construction Name
  Basement ZN,                            !- Zone Name
  Ground,                                 !- Outside Boundary Condition
  ,                                       !- Outside Boundary Condition Object
  NoSun,                                  !- Sun Exposure
  NoWind,                                 !- Wind Exposure
  ,                                       !- View Factor to Ground
  ,                                       !- Number of Vertices
  57.0278, 0, 2.439,                      !- X,Y,Z Vertex 1 {m}
  57.0278, 0, 0,                          !- X,Y,Z Vertex 2 {m}
  57.0278, 48.7381, 0,                    !- X,Y,Z Vertex 3 {m}
  57.0278, 48.7381, 2.439;                !- X,Y,Z Vertex 4 {m}

BuildingSurface:Detailed,
  Basement_Wall_North,                    !- Name
  Wall,                                   !- Surface Type
  Basement Wall construction,             !- Construction Name
  Basement ZN,                            !- Zone Name
  Ground,                                 !- Outside Boundary Condition
  ,                                       !- Outside Boundary Condition Object
  NoSun,                                  !- Sun Exposure
  NoWind,                                 !- Wind Exposure
  0,                                      !- View Factor to Ground
  ,                                       !- Number of Vertices
  57.0278, 48.7381, 2.439,                !- X,Y,Z Vertex 1 {m}
  57.0278, 48.7381, 0,                    !- X,Y,Z Vertex 2 {m}
  0, 48.7381, 0,                          !- X,Y,Z Vertex 3 {m}
  0, 48.7381, 2.439;                      !- X,Y,Z Vertex 4 {m}

BuildingSurface:Detailed,
  Basement_Wall_South,                    !- Name
  Wall,                                   !- Surface Type
  Basement Wall construction,             !- Construction Name
  Basement ZN,                            !- Zone Name
  Ground,                                 !- Outside Boundary Condition
  ,                                       !- Outside Boundary Condition Object
  NoSun,                                  !- Sun Exposure
  NoWind,                                 !- Wind Exposure
  0,                                      !- View Factor to Ground
  ,                                       !- Number of Vertices
  0, 0, 2.439,                            !- X,Y,Z Vertex 1 {m}
  0, 0, 0,                                !- X,Y,Z Vertex 2 {m}
  57.0278, 0, 0,                          !- X,Y,Z Vertex 3 {m}
  57.0278, 0, 2.439;                      !- X,Y,Z Vertex 4 {m}

BuildingSurface:Detailed,
  Basement_Wall_West,                     !- Name
  Wall,                                   !- Surface Type
  Typical Interior Wall,                  !- Construction Name
  Basement ZN,                            !- Zone Name
  Surface,                                !- Outside Boundary Condition
  DataCenter_basement_ZN_6_Wall_East,     !- Outside Boundary Condition Object
  NoSun,                                  !- Sun Exposure
  NoWind,                                 !- Wind Exposure
  0,                                      !- View Factor to Ground
  ,                                       !- Number of Vertices
  0, 48.7381, 2.439,                      !- X,Y,Z Vertex 1 {m}
  0, 48.7381, 0,                          !- X,Y,Z Vertex 2 {m}
  0, 0, 0,                                !- X,Y,Z Vertex 3 {m}
  0, 0, 2.439;                            !- X,Y,Z Vertex 4 {m}

BuildingSurface:Detailed,
  Core_bot_ZN_5_Floor-PPAutoCreateOther,  !- Name
  Ceiling,                                !- Surface Type
  Typical Interior Ceiling,               !- Construction Name
  Basement ZN,                            !- Zone Name
  Surface,                                !- Outside Boundary Condition
  Core_bot_ZN_5_Floor,                    !- Outside Boundary Condition Object
  NoSun,                                  !- Sun Exposure
  NoWind,                                 !- Wind Exposure
  0,                                      !- View Factor to Ground
  ,                                       !- Number of Vertices
  52.4546, 4.5732, 2.439,                 !- X,Y,Z Vertex 1 {m}
  52.4546, 44.165, 2.439,                 !- X,Y,Z Vertex 2 {m}
  0, 44.165, 2.439,                       !- X,Y,Z Vertex 3 {m}
  0, 4.5732, 2.439;                       !- X,Y,Z Vertex 4 {m}

BuildingSurface:Detailed,
  Perimeter_bot_ZN_1_Floor-PPAutoCreateOther, !- Name
  Ceiling,                                !- Surface Type
  Typical Interior Ceiling,               !- Construction Name
  Basement ZN,                            !- Zone Name
  Surface,                                !- Outside Boundary Condition
  Perimeter_bot_ZN_1_Floor,               !- Outside Boundary Condition Object
  NoSun,                                  !- Sun Exposure
  NoWind,                                 !- Wind Exposure
  0,                                      !- View Factor to Ground
  ,                                       !- Number of Vertices
  57.0278, 0, 2.439,                      !- X,Y,Z Vertex 1 {m}
  52.4546, 4.5732, 2.439,                 !- X,Y,Z Vertex 2 {m}
  0, 4.5732, 2.439,                       !- X,Y,Z Vertex 3 {m}
  0, 0, 2.439;                            !- X,Y,Z Vertex 4 {m}

BuildingSurface:Detailed,
  Perimeter_bot_ZN_2_Floor-PPAutoCreateOther, !- Name
  Ceiling,                                !- Surface Type
  Typical Interior Ceiling,               !- Construction Name
  Basement ZN,                            !- Zone Name
  Surface,                                !- Outside Boundary Condition
  Perimeter_bot_ZN_2_Floor,               !- Outside Boundary Condition Object
  NoSun,                                  !- Sun Exposure
  NoWind,                                 !- Wind Exposure
  ,                                       !- View Factor to Ground
  ,                                       !- Number of Vertices
  57.0278, 0, 2.439,                      !- X,Y,Z Vertex 1 {m}
  57.0278, 48.7381, 2.439,                !- X,Y,Z Vertex 2 {m}
  52.4546, 44.165, 2.439,                 !- X,Y,Z Vertex 3 {m}
  52.4546, 4.5732, 2.439;                 !- X,Y,Z Vertex 4 {m}

BuildingSurface:Detailed,
  Perimeter_bot_ZN_3_Floor-PPAutoCreateOther, !- Name
  Ceiling,                                !- Surface Type
  Typical Interior Ceiling,               !- Construction Name
  Basement ZN,                            !- Zone Name
  Surface,                                !- Outside Boundary Condition
  Perimeter_bot_ZN_3_Floor,               !- Outside Boundary Condition Object
  NoSun,                                  !- Sun Exposure
  NoWind,                                 !- Wind Exposure
  0,                                      !- View Factor to Ground
  ,                                       !- Number of Vertices
  52.4546, 44.165, 2.439,                 !- X,Y,Z Vertex 1 {m}
  57.0278, 48.7381, 2.439,                !- X,Y,Z Vertex 2 {m}
  0, 48.7381, 2.439,                      !- X,Y,Z Vertex 3 {m}
  0, 44.165, 2.439;                       !- X,Y,Z Vertex 4 {m}

InternalMass,
  Basement Mass,                          !- Name
  InteriorFurnishings,                    !- Construction Name
  Basement ZN,                            !- Zone Name
  5558.85323836;                          !- Surface Area {m2}

ZoneControl:Thermostat,
  Basement ZN Thermostat,                 !- Name
  Basement ZN,                            !- Zone or ZoneList Name
  Basement ZN Thermostat Schedule,        !- Control Type Schedule Name
  ThermostatSetpoint:DualSetpoint,        !- Control Object Type 1
  Office WholeBuilding - Lg Office Thermostat 1; !- Control Name 1

Schedule:Compact,
  Basement ZN Thermostat Schedule,        !- Name
  Basement ZN Thermostat Schedule Type Limits, !- Schedule Type Limits Name
  Through: 12/31,                         !- Field 1
  For: AllDays,                           !- Field 2
  Until: 24:00,                           !- Field 3
  4;                                      !- Field 4

ScheduleTypeLimits,
  Basement ZN Thermostat Schedule Type Limits, !- Name
  0,                                      !- Lower Limit Value {BasedOnField A3}
  4,                                      !- Upper Limit Value {BasedOnField A3}
  DISCRETE;                               !- Numeric Type

ThermostatSetpoint:DualSetpoint,
  Office WholeBuilding - Lg Office Thermostat 1, !- Name
  OfficeLarge HTGSETP_SCH_YES_OPTIMUM,    !- Heating Setpoint Temperature Schedule Name
  OfficeLarge CLGSETP_SCH_NO_SETBACK;     !- Cooling Setpoint Temperature Schedule Name

ScheduleTypeLimits,
  Temperature,                            !- Name
  ,                                       !- Lower Limit Value {BasedOnField A3}
  ,                                       !- Upper Limit Value {BasedOnField A3}
  Continuous,                             !- Numeric Type
  temperature;                            !- Unit Type

Schedule:Day:Interval,
  OfficeLarge HTGSETP_SCH_YES_OPTIMUM Default, !- Name
  Temperature,                            !- Schedule Type Limits Name
  No,                                     !- Interpolate to Timestep
  24:00,                                  !- Time 1 {hh:mm}
  15.6;                                   !- Value Until Time 1

Schedule:Day:Interval,
  OfficeLarge HTGSETP_SCH_YES_OPTIMUM Wkdy Day, !- Name
  Temperature,                            !- Schedule Type Limits Name
  No,                                     !- Interpolate to Timestep
  04:00,                                  !- Time 1 {hh:mm}
  15.6,                                   !- Value Until Time 1
  05:00,                                  !- Time 2 {hh:mm}
  17.8,                                   !- Value Until Time 2
  06:00,                                  !- Time 3 {hh:mm}
  20,                                     !- Value Until Time 3
  22:00,                                  !- Time 4 {hh:mm}
  21,                                     !- Value Until Time 4
  24:00,                                  !- Time 5 {hh:mm}
  15.6;                                   !- Value Until Time 5

Schedule:Day:Interval,
  OfficeLarge HTGSETP_SCH_YES_OPTIMUM Sat Day, !- Name
  Temperature,                            !- Schedule Type Limits Name
  No,                                     !- Interpolate to Timestep
  04:00,                                  !- Time 1 {hh:mm}
  15.6,                                   !- Value Until Time 1
  05:00,                                  !- Time 2 {hh:mm}
  17.8,                                   !- Value Until Time 2
  06:00,                                  !- Time 3 {hh:mm}
  20,                                     !- Value Until Time 3
  17:00,                                  !- Time 4 {hh:mm}
  21,                                     !- Value Until Time 4
  24:00,                                  !- Time 5 {hh:mm}
  15.6;                                   !- Value Until Time 5

Schedule:Week:Daily,
  Schedule:Week:Daily {18d5c91a-40d1-4098-adaa-5a99200e7d53}, !- Name
  OfficeLarge HTGSETP_SCH_YES_OPTIMUM Default, !- Sunday Schedule:Day Name
  OfficeLarge HTGSETP_SCH_YES_OPTIMUM Wkdy Day, !- Monday Schedule:Day Name
  OfficeLarge HTGSETP_SCH_YES_OPTIMUM Wkdy Day, !- Tuesday Schedule:Day Name
  OfficeLarge HTGSETP_SCH_YES_OPTIMUM Wkdy Day, !- Wednesday Schedule:Day Name
  OfficeLarge HTGSETP_SCH_YES_OPTIMUM Wkdy Day, !- Thursday Schedule:Day Name
  OfficeLarge HTGSETP_SCH_YES_OPTIMUM Wkdy Day, !- Friday Schedule:Day Name
  OfficeLarge HTGSETP_SCH_YES_OPTIMUM Sat Day, !- Saturday Schedule:Day Name
  OfficeLarge HTGSETP_SCH_YES_OPTIMUM Default, !- Holiday Schedule:Day Name
  OfficeLarge HTGSETP_SCH_YES_OPTIMUM Summer Design Day, !- SummerDesignDay Schedule:Day Name
  OfficeLarge HTGSETP_SCH_YES_OPTIMUM Winter Design Day, !- WinterDesignDay Schedule:Day Name
  OfficeLarge HTGSETP_SCH_YES_OPTIMUM Default, !- CustomDay1 Schedule:Day Name
  OfficeLarge HTGSETP_SCH_YES_OPTIMUM Default; !- CustomDay2 Schedule:Day Name

Schedule:Year,
  OfficeLarge HTGSETP_SCH_YES_OPTIMUM,    !- Name
  Temperature,                            !- Schedule Type Limits Name
  Schedule:Week:Daily {18d5c91a-40d1-4098-adaa-5a99200e7d53}, !- Schedule:Week Name 1
  1,                                      !- Start Month 1
  1,                                      !- Start Day 1
  12,                                     !- End Month 1
  31;                                     !- End Day 1

Schedule:Day:Interval,
  OfficeLarge HTGSETP_SCH_YES_OPTIMUM Summer Design Day, !- Name
  Temperature,                            !- Schedule Type Limits Name
  No,                                     !- Interpolate to Timestep
  24:00,                                  !- Time 1 {hh:mm}
  15.6;                                   !- Value Until Time 1

Schedule:Day:Interval,
  OfficeLarge HTGSETP_SCH_YES_OPTIMUM Winter Design Day, !- Name
  Temperature,                            !- Schedule Type Limits Name
  No,                                     !- Interpolate to Timestep
  05:00,                                  !- Time 1 {hh:mm}
  15.6,                                   !- Value Until Time 1
  06:00,                                  !- Time 2 {hh:mm}
  17.6,                                   !- Value Until Time 2
  07:00,                                  !- Time 3 {hh:mm}
  19.6,                                   !- Value Until Time 3
  22:00,                                  !- Time 4 {hh:mm}
  21,                                     !- Value Until Time 4
  24:00,                                  !- Time 5 {hh:mm}
  15.6;                                   !- Value Until Time 5

Schedule:Day:Interval,
  OfficeLarge CLGSETP_SCH_NO_SETBACK Default, !- Name
  Temperature,                            !- Schedule Type Limits Name
  No,                                     !- Interpolate to Timestep
  24:00,                                  !- Time 1 {hh:mm}
  24;                                     !- Value Until Time 1

Schedule:Day:Interval,
  OfficeLarge CLGSETP_SCH_NO_SETBACK Default|WntrDsn|Sat|Wkdy Day, !- Name
  Temperature,                            !- Schedule Type Limits Name
  No,                                     !- Interpolate to Timestep
  24:00,                                  !- Time 1 {hh:mm}
  24;                                     !- Value Until Time 1

Schedule:Week:Daily,
  Schedule:Week:Daily {da3ce5d0-ed66-42af-b22e-c0681405b13e}, !- Name
  OfficeLarge CLGSETP_SCH_NO_SETBACK Default, !- Sunday Schedule:Day Name
  OfficeLarge CLGSETP_SCH_NO_SETBACK Default|WntrDsn|Sat|Wkdy Day, !- Monday Schedule:Day Name
  OfficeLarge CLGSETP_SCH_NO_SETBACK Default|WntrDsn|Sat|Wkdy Day, !- Tuesday Schedule:Day Name
  OfficeLarge CLGSETP_SCH_NO_SETBACK Default|WntrDsn|Sat|Wkdy Day, !- Wednesday Schedule:Day Name
  OfficeLarge CLGSETP_SCH_NO_SETBACK Default|WntrDsn|Sat|Wkdy Day, !- Thursday Schedule:Day Name
  OfficeLarge CLGSETP_SCH_NO_SETBACK Default|WntrDsn|Sat|Wkdy Day, !- Friday Schedule:Day Name
  OfficeLarge CLGSETP_SCH_NO_SETBACK Default|WntrDsn|Sat|Wkdy Day, !- Saturday Schedule:Day Name
  OfficeLarge CLGSETP_SCH_NO_SETBACK Default, !- Holiday Schedule:Day Name
  OfficeLarge CLGSETP_SCH_NO_SETBACK Summer Design Day, !- SummerDesignDay Schedule:Day Name
  OfficeLarge CLGSETP_SCH_NO_SETBACK Winter Design Day, !- WinterDesignDay Schedule:Day Name
  OfficeLarge CLGSETP_SCH_NO_SETBACK Default, !- CustomDay1 Schedule:Day Name