
OS:Version,
  {e898f26e-66d2-46d7-8098-3731f4bceb62}, !- Handle
  1.3.0;                                  !- Version Identifier

OS:Building,
  {af726e19-44ab-4066-a320-9a52ce2cfb9d}, !- Handle
  Ref Bldg Large Hotel New2004_v1.3_5.0,  !- Name
  ,                                       !- Building Sector Type
  0,                                      !- North Axis {deg}
  ,                                       !- Nominal Floor to Floor Height {m}
  ,                                       !- Space Type Name
  ,                                       !- Default Construction Set Name
  ;                                       !- Default Schedule Set Name

OS:ShadingSurfaceGroup,
  {6e3c171e-e119-4a64-9af4-fe50442aaddd}, !- Handle
  {30199532-e49c-4c60-8188-73ceb40fb98e}, !- Name
  Building;                               !- Shading Surface Type

OS:ShadingSurface,
  {3857fb79-d924-4b7f-9be8-f84f5054c947}, !- Handle
  Canopy,                                 !- Name
  ,                                       !- Construction Name
  {6e3c171e-e119-4a64-9af4-fe50442aaddd}, !- Shading Surface Group Name
  ,                                       !- Transmittance Schedule Name
  ,                                       !- Number of Vertices
  37.338, -9.144, 3.9624,                 !- X,Y,Z Vertex 1 {m}
  37.338, 0, 3.9624,                      !- X,Y,Z Vertex 2 {m}
  28.194, 0, 3.9624,                      !- X,Y,Z Vertex 3 {m}
  28.194, -9.144, 3.9624;                 !- X,Y,Z Vertex 4 {m}

OS:ThermalZone,
  {68a9550f-5ff0-47a3-8aae-71d7cf38ae92}, !- Handle
  Retail_1_Flr_1 Thermal Zone,            !- Name
  1,                                      !- Multiplier
  ,                                       !- Ceiling Height {m}
  ,                                       !- Volume {m3}
  ,                                       !- Floor Area {m2}
  ,                                       !- Zone Inside Convection Algorithm
  ,                                       !- Zone Outside Convection Algorithm
  ,                                       !- Zone Conditioning Equipment List Name
  {15c2f63a-69fa-4414-a8df-fa60328b7c55}, !- Zone Air Inlet Port List
  {e5943ef8-b04d-4188-9129-c3cb90925423}, !- Zone Air Exhaust Port List
  {74613600-4b5a-4066-95d1-a58af3234d48}, !- Zone Air Node Name
  ,                                       !- Zone Return Air Node Name
  ,                                       !- Primary Daylighting Control Name
  ,                                       !- Fraction of Zone Controlled by Primary Daylighting Control
  ,                                       !- Secondary Daylighting Control Name
  ,                                       !- Fraction of Zone Controlled by Secondary Daylighting Control
  ,                                       !- Illuminance Map Name
  ,                                       !- Group Rendering Name
  {bf3911a6-0e73-4147-9dd9-65cca6027555}, !- Thermostat Name
  No;                                     !- Use Ideal Air Loads

OS:Node,
  {c26b0596-4dd0-41fa-8909-7e311cca31b7}, !- Handle
  Node 1,                                 !- Name
  {74613600-4b5a-4066-95d1-a58af3234d48}, !- Inlet Port
  ;                                       !- Outlet Port

OS:Connection,
  {74613600-4b5a-4066-95d1-a58af3234d48}, !- Handle
  Connection 1,                           !- Name
  {68a9550f-5ff0-47a3-8aae-71d7cf38ae92}, !- Source Object
  11,                                     !- Outlet Port
  {c26b0596-4dd0-41fa-8909-7e311cca31b7}, !- Target Object
  2;                                      !- Inlet Port

OS:PortList,
  {15c2f63a-69fa-4414-a8df-fa60328b7c55}, !- Handle
  Port List 1,                            !- Name
  {68a9550f-5ff0-47a3-8aae-71d7cf38ae92}; !- HVAC Component

OS:PortList,
  {e5943ef8-b04d-4188-9129-c3cb90925423}, !- Handle
  Port List 2,                            !- Name
  {68a9550f-5ff0-47a3-8aae-71d7cf38ae92}; !- HVAC Component

OS:Sizing:Zone,
  {5a597e4d-dee5-4622-9e92-b7148a71be35}, !- Handle
  {68a9550f-5ff0-47a3-8aae-71d7cf38ae92}, !- Zone or ZoneList Name
  14,                                     !- Zone Cooling Design Supply Air Temperature {C}
  40,                                     !- Zone Heating Design Supply Air Temperature {C}
  0.0085,                                 !- Zone Cooling Design Supply Air Humidity Ratio {kg-H2O/kg-air}
  0.008,                                  !- Zone Heating Design Supply Air Humidity Ratio {kg-H2O/kg-air}
  ,                                       !- Zone Heating Sizing Factor
  ,                                       !- Zone Cooling Sizing Factor
  DesignDay,                              !- Cooling Design Air Flow Method
  ,                                       !- Cooling Design Air Flow Rate {m3/s}
  ,                                       !- Cooling Minimum Air Flow per Zone Floor Area {m3/s-m2}
  ,                                       !- Cooling Minimum Air Flow {m3/s}
  ,                                       !- Cooling Minimum Air Flow Fraction
  DesignDay,                              !- Heating Design Air Flow Method
  ,                                       !- Heating Design Air Flow Rate {m3/s}
  ,                                       !- Heating Maximum Air Flow per Zone Floor Area {m3/s-m2}
  ,                                       !- Heating Maximum Air Flow {m3/s}
  ,                                       !- Heating Maximum Air Flow Fraction
  ,                                       !- Design Zone Air Distribution Effectiveness in Cooling Mode
  ;                                       !- Design Zone Air Distribution Effectiveness in Heating Mode

OS:ZoneHVAC:EquipmentList,
  {e57ec06a-f09f-4e39-9acb-b1f388c65498}, !- Handle
  Zone HVAC Equipment List 1,             !- Name
  {68a9550f-5ff0-47a3-8aae-71d7cf38ae92}; !- Thermal Zone

OS:ThermalZone,
  {4b42e443-760b-4a8f-834c-6e0123ec901c}, !- Handle
  Banquet_Flr_6 Thermal Zone,             !- Name
  1,                                      !- Multiplier
  ,                                       !- Ceiling Height {m}
  ,                                       !- Volume {m3}
  ,                                       !- Floor Area {m2}
  ,                                       !- Zone Inside Convection Algorithm
  ,                                       !- Zone Outside Convection Algorithm
  ,                                       !- Zone Conditioning Equipment List Name
  {a1d32fc4-77c7-4bc0-9a94-62997f5f5e01}, !- Zone Air Inlet Port List
  {5f4e6d99-2593-4f49-8986-75dddc67b015}, !- Zone Air Exhaust Port List
  {751637f3-281d-4d9e-aae2-28a94a2936ac}, !- Zone Air Node Name
  ,                                       !- Zone Return Air Node Name
  ,                                       !- Primary Daylighting Control Name
  ,                                       !- Fraction of Zone Controlled by Primary Daylighting Control
  ,                                       !- Secondary Daylighting Control Name
  ,                                       !- Fraction of Zone Controlled by Secondary Daylighting Control
  ,                                       !- Illuminance Map Name
  ,                                       !- Group Rendering Name
  {040dae19-2d0d-49ac-9c00-e568bd52ee1f}, !- Thermostat Name
  No;                                     !- Use Ideal Air Loads

OS:Node,
  {5125615f-2720-42ae-92ec-8a1670e84a78}, !- Handle
  Node 2,                                 !- Name
  {751637f3-281d-4d9e-aae2-28a94a2936ac}, !- Inlet Port
  ;                                       !- Outlet Port

OS:Connection,
  {751637f3-281d-4d9e-aae2-28a94a2936ac}, !- Handle
  Connection 2,                           !- Name
  {4b42e443-760b-4a8f-834c-6e0123ec901c}, !- Source Object
  11,                                     !- Outlet Port
  {5125615f-2720-42ae-92ec-8a1670e84a78}, !- Target Object
  2;                                      !- Inlet Port

OS:PortList,
  {a1d32fc4-77c7-4bc0-9a94-62997f5f5e01}, !- Handle
  Port List 3,                            !- Name
  {4b42e443-760b-4a8f-834c-6e0123ec901c}; !- HVAC Component

OS:PortList,
  {5f4e6d99-2593-4f49-8986-75dddc67b015}, !- Handle
  Port List 4,                            !- Name
  {4b42e443-760b-4a8f-834c-6e0123ec901c}; !- HVAC Component

OS:Sizing:Zone,
  {f425b915-d018-4c3a-90c0-57e254ff74a3}, !- Handle
  {4b42e443-760b-4a8f-834c-6e0123ec901c}, !- Zone or ZoneList Name
  14,                                     !- Zone Cooling Design Supply Air Temperature {C}
  40,                                     !- Zone Heating Design Supply Air Temperature {C}
  0.0085,                                 !- Zone Cooling Design Supply Air Humidity Ratio {kg-H2O/kg-air}
  0.008,                                  !- Zone Heating Design Supply Air Humidity Ratio {kg-H2O/kg-air}
  ,                                       !- Zone Heating Sizing Factor
  ,                                       !- Zone Cooling Sizing Factor
  DesignDay,                              !- Cooling Design Air Flow Method
  ,                                       !- Cooling Design Air Flow Rate {m3/s}
  ,                                       !- Cooling Minimum Air Flow per Zone Floor Area {m3/s-m2}
  ,                                       !- Cooling Minimum Air Flow {m3/s}
  ,                                       !- Cooling Minimum Air Flow Fraction
  DesignDay,                              !- Heating Design Air Flow Method
  ,                                       !- Heating Design Air Flow Rate {m3/s}
  ,                                       !- Heating Maximum Air Flow per Zone Floor Area {m3/s-m2}
  ,                                       !- Heating Maximum Air Flow {m3/s}
  ,                                       !- Heating Maximum Air Flow Fraction
  ,                                       !- Design Zone Air Distribution Effectiveness in Cooling Mode
  ;                                       !- Design Zone Air Distribution Effectiveness in Heating Mode

OS:ZoneHVAC:EquipmentList,
  {60baa616-bc29-4bee-ab72-2e33e0259419}, !- Handle
  Zone HVAC Equipment List 2,             !- Name
  {4b42e443-760b-4a8f-834c-6e0123ec901c}; !- Thermal Zone

OS:ThermalZone,
  {b780a898-4d40-4e13-9bea-da0080020012}, !- Handle
  Room_1_Flr_6 Thermal Zone,              !- Name
  1,                                      !- Multiplier
  ,                                       !- Ceiling Height {m}
  ,                                       !- Volume {m3}
  ,                                       !- Floor Area {m2}
  ,                                       !- Zone Inside Convection Algorithm
  ,                                       !- Zone Outside Convection Algorithm
  ,                                       !- Zone Conditioning Equipment List Name
  {62a2ab43-9643-449e-a662-c496e54d6f11}, !- Zone Air Inlet Port List
  {87e1539a-4aa1-4c80-b97d-e7443d118e74}, !- Zone Air Exhaust Port List
  {7ff49f44-f3d8-4375-845b-07431a254965}, !- Zone Air Node Name
  ,                                       !- Zone Return Air Node Name
  ,                                       !- Primary Daylighting Control Name
  ,                                       !- Fraction of Zone Controlled by Primary Daylighting Control
  ,                                       !- Secondary Daylighting Control Name
  ,                                       !- Fraction of Zone Controlled by Secondary Daylighting Control
  ,                                       !- Illuminance Map Name
  ,                                       !- Group Rendering Name
  {0a2ac6fd-2008-47b5-8f24-a7b9b207c97d}, !- Thermostat Name
  No;                                     !- Use Ideal Air Loads

OS:Node,
  {5dda3480-d52d-418c-a4af-f9532a6ee187}, !- Handle
  Node 3,                                 !- Name
  {7ff49f44-f3d8-4375-845b-07431a254965}, !- Inlet Port
  ;                                       !- Outlet Port

OS:Connection,
  {7ff49f44-f3d8-4375-845b-07431a254965}, !- Handle
  Connection 3,                           !- Name
  {b780a898-4d40-4e13-9bea-da0080020012}, !- Source Object
  11,                                     !- Outlet Port
  {5dda3480-d52d-418c-a4af-f9532a6ee187}, !- Target Object
  2;                                      !- Inlet Port

OS:PortList,
  {62a2ab43-9643-449e-a662-c496e54d6f11}, !- Handle
  Port List 5,                            !- Name
  {b780a898-4d40-4e13-9bea-da0080020012}; !- HVAC Component

OS:PortList,
  {87e1539a-4aa1-4c80-b97d-e7443d118e74}, !- Handle
  Port List 6,                            !- Name
  {b780a898-4d40-4e13-9bea-da0080020012}; !- HVAC Component

OS:Sizing:Zone,
  {7809900c-a239-4acc-8061-d841ed310576}, !- Handle
  {b780a898-4d40-4e13-9bea-da0080020012}, !- Zone or ZoneList Name
  14,                                     !- Zone Cooling Design Supply Air Temperature {C}
  40,                                     !- Zone Heating Design Supply Air Temperature {C}
  0.0085,                                 !- Zone Cooling Design Supply Air Humidity Ratio {kg-H2O/kg-air}
  0.008,                                  !- Zone Heating Design Supply Air Humidity Ratio {kg-H2O/kg-air}
  ,                                       !- Zone Heating Sizing Factor
  ,                                       !- Zone Cooling Sizing Factor
  DesignDay,                              !- Cooling Design Air Flow Method
  ,                                       !- Cooling Design Air Flow Rate {m3/s}
  ,                                       !- Cooling Minimum Air Flow per Zone Floor Area {m3/s-m2}
  ,                                       !- Cooling Minimum Air Flow {m3/s}
  ,                                       !- Cooling Minimum Air Flow Fraction
  DesignDay,                              !- Heating Design Air Flow Method
  ,                                       !- Heating Design Air Flow Rate {m3/s}
  ,                                       !- Heating Maximum Air Flow per Zone Floor Area {m3/s-m2}
  ,                                       !- Heating Maximum Air Flow {m3/s}
  ,                                       !- Heating Maximum Air Flow Fraction
  ,                                       !- Design Zone Air Distribution Effectiveness in Cooling Mode
  ;                                       !- Design Zone Air Distribution Effectiveness in Heating Mode

OS:ZoneHVAC:EquipmentList,
  {cdc6b69b-e67a-49df-84f9-8e004c29af4d}, !- Handle
  Zone HVAC Equipment List 3,             !- Name
  {b780a898-4d40-4e13-9bea-da0080020012}; !- Thermal Zone

OS:ThermalZone,
  {a6e03b6c-490c-4d60-8e49-3fac714021d4}, !- Handle
  Room_5_Flr_3 Thermal Zone,              !- Name
  4,                                      !- Multiplier
  ,                                       !- Ceiling Height {m}
  ,                                       !- Volume {m3}
  ,                                       !- Floor Area {m2}
  ,                                       !- Zone Inside Convection Algorithm
  ,                                       !- Zone Outside Convection Algorithm
  ,                                       !- Zone Conditioning Equipment List Name
  {c9c0d7a3-b512-4f63-97e9-341396626050}, !- Zone Air Inlet Port List
  {a006813f-b0e6-46f6-b38a-f05e7dafd760}, !- Zone Air Exhaust Port List
  {7d4342c4-42f4-4cb1-9712-3767d65a20ff}, !- Zone Air Node Name
  ,                                       !- Zone Return Air Node Name
  ,                                       !- Primary Daylighting Control Name
  ,                                       !- Fraction of Zone Controlled by Primary Daylighting Control
  ,                                       !- Secondary Daylighting Control Name
  ,                                       !- Fraction of Zone Controlled by Secondary Daylighting Control
  ,                                       !- Illuminance Map Name
  ,                                       !- Group Rendering Name
  {716e3a45-c9ce-42a0-916d-8e05e888a320}, !- Thermostat Name
  No;                                     !- Use Ideal Air Loads

OS:Node,
  {e3eaa18a-bfc3-4171-886a-777f04fa29e9}, !- Handle
  Node 4,                                 !- Name
  {7d4342c4-42f4-4cb1-9712-3767d65a20ff}, !- Inlet Port
  ;                                       !- Outlet Port

OS:Connection,
  {7d4342c4-42f4-4cb1-9712-3767d65a20ff}, !- Handle
  Connection 4,                           !- Name
  {a6e03b6c-490c-4d60-8e49-3fac714021d4}, !- Source Object
  11,                                     !- Outlet Port
  {e3eaa18a-bfc3-4171-886a-777f04fa29e9}, !- Target Object
  2;                                      !- Inlet Port

OS:PortList,
  {c9c0d7a3-b512-4f63-97e9-341396626050}, !- Handle
  Port List 7,                            !- Name
  {a6e03b6c-490c-4d60-8e49-3fac714021d4}; !- HVAC Component

OS:PortList,
  {a006813f-b0e6-46f6-b38a-f05e7dafd760}, !- Handle
  Port List 8,                            !- Name
  {a6e03b6c-490c-4d60-8e49-3fac714021d4}; !- HVAC Component

OS:Sizing:Zone,
  {fa64c3fc-4649-4c88-8f50-7bfb68fdb4a1}, !- Handle
  {a6e03b6c-490c-4d60-8e49-3fac714021d4}, !- Zone or ZoneList Name
  14,                                     !- Zone Cooling Design Supply Air Temperature {C}
  40,                                     !- Zone Heating Design Supply Air Temperature {C}
  0.0085,                                 !- Zone Cooling Design Supply Air Humidity Ratio {kg-H2O/kg-air}
  0.008,                                  !- Zone Heating Design Supply Air Humidity Ratio {kg-H2O/kg-air}
  ,                                       !- Zone Heating Sizing Factor
  ,                                       !- Zone Cooling Sizing Factor
  DesignDay,                              !- Cooling Design Air Flow Method
  ,                                       !- Cooling Design Air Flow Rate {m3/s}
  ,                                       !- Cooling Minimum Air Flow per Zone Floor Area {m3/s-m2}
  ,                                       !- Cooling Minimum Air Flow {m3/s}
  ,                                       !- Cooling Minimum Air Flow Fraction
  DesignDay,                              !- Heating Design Air Flow Method
  ,                                       !- Heating Design Air Flow Rate {m3/s}
  ,                                       !- Heating Maximum Air Flow per Zone Floor Area {m3/s-m2}
  ,                                       !- Heating Maximum Air Flow {m3/s}
  ,                                       !- Heating Maximum Air Flow Fraction
  ,                                       !- Design Zone Air Distribution Effectiveness in Cooling Mode
  ;                                       !- Design Zone Air Distribution Effectiveness in Heating Mode

OS:ZoneHVAC:EquipmentList,
  {add1ff87-939d-4e61-b1f5-42b401027254}, !- Handle
  Zone HVAC Equipment List 4,             !- Name
  {a6e03b6c-490c-4d60-8e49-3fac714021d4}; !- Thermal Zone

OS:ThermalZone,
  {8d3aa8ac-98d4-4536-a5cc-ee518d0f8a30}, !- Handle
  Room_1_Flr_3 Thermal Zone,              !- Name
  4,                                      !- Multiplier
  ,                                       !- Ceiling Height {m}
  ,                                       !- Volume {m3}
  ,                                       !- Floor Area {m2}
  ,                                       !- Zone Inside Convection Algorithm
  ,                                       !- Zone Outside Convection Algorithm
  ,                                       !- Zone Conditioning Equipment List Name
  {eb1d8fd2-0d29-435e-8bef-36c19892fa93}, !- Zone Air Inlet Port List
  {93cafea9-f8c6-4f16-987b-b3d7d2a006e6}, !- Zone Air Exhaust Port List
  {3f48d5ea-a20b-46e6-9edb-adb7ec59a081}, !- Zone Air Node Name
  ,                                       !- Zone Return Air Node Name
  ,                                       !- Primary Daylighting Control Name
  ,                                       !- Fraction of Zone Controlled by Primary Daylighting Control
  ,                                       !- Secondary Daylighting Control Name
  ,                                       !- Fraction of Zone Controlled by Secondary Daylighting Control
  ,                                       !- Illuminance Map Name
  ,                                       !- Group Rendering Name
  {9098b8b3-4453-45c4-9012-28b12c15c605}, !- Thermostat Name
  No;                                     !- Use Ideal Air Loads

OS:Node,
  {d56d0a89-b05d-41c1-970e-b4de4cf54848}, !- Handle
  Node 5,                                 !- Name
  {3f48d5ea-a20b-46e6-9edb-adb7ec59a081}, !- Inlet Port
  ;                                       !- Outlet Port

OS:Connection,
  {3f48d5ea-a20b-46e6-9edb-adb7ec59a081}, !- Handle
  Connection 5,                           !- Name
  {8d3aa8ac-98d4-4536-a5cc-ee518d0f8a30}, !- Source Object
  11,                                     !- Outlet Port
  {d56d0a89-b05d-41c1-970e-b4de4cf54848}, !- Target Object
  2;                                      !- Inlet Port

OS:PortList,
  {eb1d8fd2-0d29-435e-8bef-36c19892fa93}, !- Handle
  Port List 9,                            !- Name
  {8d3aa8ac-98d4-4536-a5cc-ee518d0f8a30}; !- HVAC Component

OS:PortList,
  {93cafea9-f8c6-4f16-987b-b3d7d2a006e6}, !- Handle
  Port List 10,                           !- Name
  {8d3aa8ac-98d4-4536-a5cc-ee518d0f8a30}; !- HVAC Component

OS:Sizing:Zone,
  {a6909255-de6c-4fbb-9ce9-ba2f1b22dc81}, !- Handle
  {8d3aa8ac-98d4-4536-a5cc-ee518d0f8a30}, !- Zone or ZoneList Name
  14,                                     !- Zone Cooling Design Supply Air Temperature {C}
  40,                                     !- Zone Heating Design Supply Air Temperature {C}
  0.0085,                                 !- Zone Cooling Design Supply Air Humidity Ratio {kg-H2O/kg-air}
  0.008,                                  !- Zone Heating Design Supply Air Humidity Ratio {kg-H2O/kg-air}
  ,                                       !- Zone Heating Sizing Factor
  ,                                       !- Zone Cooling Sizing Factor
  DesignDay,                              !- Cooling Design Air Flow Method
  ,                                       !- Cooling Design Air Flow Rate {m3/s}
  ,                                       !- Cooling Minimum Air Flow per Zone Floor Area {m3/s-m2}
  ,                                       !- Cooling Minimum Air Flow {m3/s}
  ,                                       !- Cooling Minimum Air Flow Fraction
  DesignDay,                              !- Heating Design Air Flow Method
  ,                                       !- Heating Design Air Flow Rate {m3/s}
  ,                                       !- Heating Maximum Air Flow per Zone Floor Area {m3/s-m2}
  ,                                       !- Heating Maximum Air Flow {m3/s}
  ,                                       !- Heating Maximum Air Flow Fraction
  ,                                       !- Design Zone Air Distribution Effectiveness in Cooling Mode
  ;                                       !- Design Zone Air Distribution Effectiveness in Heating Mode

OS:ZoneHVAC:EquipmentList,
  {e33c0ec8-d42e-4ac3-af6e-571221ee0fb2}, !- Handle
  Zone HVAC Equipment List 5,             !- Name
  {8d3aa8ac-98d4-4536-a5cc-ee518d0f8a30}; !- Thermal Zone

OS:ThermalZone,
  {147d044a-0f4d-43c2-aebf-bf969dd7ba51}, !- Handle
  Room_6_Flr_3 Thermal Zone,              !- Name
  4,                                      !- Multiplier
  ,                                       !- Ceiling Height {m}
  ,                                       !- Volume {m3}
  ,                                       !- Floor Area {m2}
  ,                                       !- Zone Inside Convection Algorithm
  ,                                       !- Zone Outside Convection Algorithm
  ,                                       !- Zone Conditioning Equipment List Name
  {33fccfd8-9ec2-4bbf-aaac-f1ac31eebe70}, !- Zone Air Inlet Port List
  {d3f6b389-0a0d-4e7f-8752-bc590977d6f9}, !- Zone Air Exhaust Port List
  {0ade7d20-e2af-4e55-8b42-976924e88e79}, !- Zone Air Node Name
  ,                                       !- Zone Return Air Node Name
  ,                                       !- Primary Daylighting Control Name
  ,                                       !- Fraction of Zone Controlled by Primary Daylighting Control
  ,                                       !- Secondary Daylighting Control Name
  ,                                       !- Fraction of Zone Controlled by Secondary Daylighting Control
  ,                                       !- Illuminance Map Name
  ,                                       !- Group Rendering Name
  {b9a29dc5-cd84-48db-8f70-b1c146076430}, !- Thermostat Name
  No;                                     !- Use Ideal Air Loads

OS:Node,
  {e089b8da-c968-4c50-9c57-75c64a6fc137}, !- Handle
  Node 6,                                 !- Name
  {0ade7d20-e2af-4e55-8b42-976924e88e79}, !- Inlet Port
  ;                                       !- Outlet Port

OS:Connection,
  {0ade7d20-e2af-4e55-8b42-976924e88e79}, !- Handle
  Connection 6,                           !- Name
  {147d044a-0f4d-43c2-aebf-bf969dd7ba51}, !- Source Object
  11,                                     !- Outlet Port
  {e089b8da-c968-4c50-9c57-75c64a6fc137}, !- Target Object
  2;                                      !- Inlet Port

OS:PortList,
  {33fccfd8-9ec2-4bbf-aaac-f1ac31eebe70}, !- Handle
  Port List 11,                           !- Name
  {147d044a-0f4d-43c2-aebf-bf969dd7ba51}; !- HVAC Component

OS:PortList,
  {d3f6b389-0a0d-4e7f-8752-bc590977d6f9}, !- Handle
  Port List 12,                           !- Name
  {147d044a-0f4d-43c2-aebf-bf969dd7ba51}; !- HVAC Component

OS:Sizing:Zone,
  {6e9d0e23-7b0c-427a-9a97-dd57b3bc399e}, !- Handle
  {147d044a-0f4d-43c2-aebf-bf969dd7ba51}, !- Zone or ZoneList Name
  14,                                     !- Zone Cooling Design Supply Air Temperature {C}
  40,                                     !- Zone Heating Design Supply Air Temperature {C}
  0.0085,                                 !- Zone Cooling Design Supply Air Humidity Ratio {kg-H2O/kg-air}
  0.008,                                  !- Zone Heating Design Supply Air Humidity Ratio {kg-H2O/kg-air}
  ,                                       !- Zone Heating Sizing Factor
  ,                                       !- Zone Cooling Sizing Factor
  DesignDay,                              !- Cooling Design Air Flow Method
  ,                                       !- Cooling Design Air Flow Rate {m3/s}
  ,                                       !- Cooling Minimum Air Flow per Zone Floor Area {m3/s-m2}
  ,                                       !- Cooling Minimum Air Flow {m3/s}
  ,                                       !- Cooling Minimum Air Flow Fraction
  DesignDay,                              !- Heating Design Air Flow Method
  ,                                       !- Heating Design Air Flow Rate {m3/s}
  ,                                       !- Heating Maximum Air Flow per Zone Floor Area {m3/s-m2}
  ,                                       !- Heating Maximum Air Flow {m3/s}
  ,                                       !- Heating Maximum Air Flow Fraction
  ,                                       !- Design Zone Air Distribution Effectiveness in Cooling Mode
  ;                                       !- Design Zone Air Distribution Effectiveness in Heating Mode

OS:ZoneHVAC:EquipmentList,
  {b867c319-87a0-4b00-8208-fb26f547d851}, !- Handle
  Zone HVAC Equipment List 6,             !- Name
  {147d044a-0f4d-43c2-aebf-bf969dd7ba51}; !- Thermal Zone

OS:ThermalZone,
  {2c555f16-a61b-4c9d-a504-5a99bb321ce0}, !- Handle
  Mech_Flr_1 Thermal Zone,                !- Name
  1,                                      !- Multiplier
  ,                                       !- Ceiling Height {m}
  ,                                       !- Volume {m3}
  ,                                       !- Floor Area {m2}
  ,                                       !- Zone Inside Convection Algorithm
  ,                                       !- Zone Outside Convection Algorithm
  ,                                       !- Zone Conditioning Equipment List Name
  {3061f1d4-65c7-4074-8d67-734e33971f6f}, !- Zone Air Inlet Port List
  {3dba3701-66a3-4685-9a39-86a7ead0d73b}, !- Zone Air Exhaust Port List
  {9c1d4e18-ef68-4e61-9483-c6c9a4ebba62}, !- Zone Air Node Name
  ,                                       !- Zone Return Air Node Name
  ,                                       !- Primary Daylighting Control Name
  ,                                       !- Fraction of Zone Controlled by Primary Daylighting Control
  ,                                       !- Secondary Daylighting Control Name
  ,                                       !- Fraction of Zone Controlled by Secondary Daylighting Control
  ,                                       !- Illuminance Map Name
  ,                                       !- Group Rendering Name
  {cf4efdfe-eb24-4051-a1c9-947d243ea526}, !- Thermostat Name
  No;                                     !- Use Ideal Air Loads

OS:Node,
  {452890bd-76d4-43b3-a26f-70c73adc431e}, !- Handle
  Node 7,                                 !- Name
  {9c1d4e18-ef68-4e61-9483-c6c9a4ebba62}, !- Inlet Port
  ;                                       !- Outlet Port

OS:Connection,
  {9c1d4e18-ef68-4e61-9483-c6c9a4ebba62}, !- Handle
  Connection 7,                           !- Name
  {2c555f16-a61b-4c9d-a504-5a99bb321ce0}, !- Source Object
  11,                                     !- Outlet Port
  {452890bd-76d4-43b3-a26f-70c73adc431e}, !- Target Object
  2;                                      !- Inlet Port

OS:PortList,
  {3061f1d4-65c7-4074-8d67-734e33971f6f}, !- Handle
  Port List 13,                           !- Name
  {2c555f16-a61b-4c9d-a504-5a99bb321ce0}; !- HVAC Component

OS:PortList,
  {3dba3701-66a3-4685-9a39-86a7ead0d73b}, !- Handle
  Port List 14,                           !- Name
  {2c555f16-a61b-4c9d-a504-5a99bb321ce0}; !- HVAC Component

OS:Sizing:Zone,
  {afe704a6-4614-48b8-b43b-1f097a8dd545}, !- Handle